*SPEF "ieee 1481-1999"
*DESIGN "uart_top"
*DATE "11:11:11 Fri 11 11, 1111"
*VENDOR "OpenRCX"
*PROGRAM "Parallel Extraction"
*VERSION "1.0"
*DESIGN_FLOW "NAME_SCOPE LOCAL" "PIN_CAP NONE"
*DIVIDER /
*DELIMITER :
*BUS_DELIMITER []
*T_UNIT 1 NS
*C_UNIT 1 PF
*R_UNIT 1 OHM
*L_UNIT 1 HENRY

*NAME_MAP
*3 addr[0]
*4 addr[1]
*5 addr[2]
*6 break_int
*7 clk
*8 cts_in
*9 dcd_in
*10 dr
*11 dsr_in
*12 dtr
*13 framing_err
*14 irq
*15 out1
*16 out2
*17 parity_err
*18 rd_en
*19 rdata[0]
*20 rdata[1]
*21 rdata[2]
*22 rdata[3]
*23 rdata[4]
*24 rdata[5]
*25 rdata[6]
*26 rdata[7]
*27 ri_in
*28 rst_n
*29 rts
*30 rx_in
*31 temt
*32 thre
*33 tx_out
*34 wdata[0]
*35 wdata[1]
*36 wdata[2]
*37 wdata[3]
*38 wdata[4]
*39 wdata[5]
*40 wdata[6]
*41 wdata[7]
*42 wr_en
*43 _0000_
*44 _0001_
*45 _0002_
*46 _0003_
*47 _0004_
*48 _0005_
*49 _0006_
*50 _0007_
*51 _0008_
*52 _0009_
*53 _0010_
*54 _0011_
*55 _0012_
*56 _0013_
*57 _0014_
*58 _0015_
*59 _0016_
*60 _0017_
*61 _0018_
*62 _0019_
*63 _0020_
*64 _0021_
*65 _0022_
*66 _0023_
*67 _0024_
*68 _0025_
*69 _0026_
*70 _0027_
*71 _0028_
*72 _0029_
*73 _0030_
*74 _0031_
*75 _0032_
*76 _0033_
*77 _0034_
*78 _0035_
*79 _0036_
*80 _0037_
*81 _0038_
*82 _0039_
*83 _0040_
*84 _0041_
*85 _0042_
*86 _0043_
*87 _0044_
*88 _0045_
*89 _0046_
*90 _0047_
*91 _0048_
*92 _0049_
*93 _0050_
*94 _0051_
*95 _0052_
*96 _0053_
*97 _0054_
*98 _0055_
*99 _0056_
*100 _0057_
*101 _0058_
*102 _0059_
*103 _0060_
*104 _0061_
*105 _0062_
*106 _0063_
*107 _0064_
*108 _0065_
*109 _0066_
*110 _0067_
*111 _0068_
*112 _0069_
*113 _0070_
*114 _0071_
*115 _0072_
*116 _0073_
*117 _0074_
*118 _0075_
*119 _0076_
*120 _0077_
*121 _0078_
*122 _0079_
*123 _0080_
*124 _0081_
*125 _0082_
*126 _0083_
*127 _0084_
*128 _0085_
*129 _0086_
*130 _0087_
*131 _0088_
*132 _0089_
*133 _0090_
*134 _0091_
*135 _0092_
*136 _0093_
*137 _0094_
*138 _0095_
*139 _0096_
*140 _0097_
*141 _0098_
*142 _0099_
*143 _0100_
*144 _0101_
*145 _0102_
*146 _0103_
*147 _0104_
*148 _0105_
*149 _0106_
*150 _0107_
*151 _0108_
*152 _0109_
*153 _0110_
*154 _0111_
*155 _0112_
*156 _0113_
*157 _0114_
*158 _0115_
*159 _0116_
*160 _0117_
*161 _0118_
*162 _0119_
*163 _0120_
*164 _0121_
*165 _0122_
*166 _0123_
*167 _0124_
*168 _0125_
*169 _0126_
*170 _0127_
*171 _0128_
*172 _0129_
*173 _0130_
*174 _0131_
*175 _0132_
*176 _0133_
*177 _0134_
*178 _0135_
*179 _0136_
*180 _0137_
*181 _0138_
*182 _0139_
*183 _0140_
*184 _0141_
*185 _0142_
*186 _0143_
*187 _0144_
*188 _0145_
*189 _0146_
*190 _0147_
*191 _0148_
*192 _0149_
*193 _0150_
*194 _0151_
*195 _0152_
*196 _0153_
*197 _0154_
*198 _0155_
*199 _0156_
*200 _0157_
*201 _0158_
*202 _0159_
*203 _0160_
*204 _0161_
*205 _0162_
*206 _0163_
*207 _0164_
*208 _0165_
*209 _0166_
*210 _0167_
*211 _0168_
*212 _0169_
*213 _0170_
*214 _0171_
*215 _0172_
*216 _0173_
*217 _0174_
*218 _0175_
*219 _0176_
*220 _0177_
*221 _0178_
*222 _0179_
*223 _0180_
*224 _0181_
*225 _0182_
*226 _0183_
*227 _0184_
*228 _0185_
*229 _0186_
*230 _0187_
*231 _0188_
*232 _0189_
*233 _0190_
*234 _0191_
*235 _0192_
*236 _0193_
*237 _0194_
*238 _0195_
*239 _0196_
*240 _0197_
*241 _0198_
*242 _0199_
*243 _0200_
*244 _0201_
*245 _0202_
*246 _0203_
*247 _0204_
*248 _0205_
*249 _0206_
*250 _0207_
*251 _0208_
*252 _0209_
*253 _0210_
*254 _0211_
*255 _0212_
*256 _0213_
*257 _0214_
*258 _0215_
*259 _0216_
*260 _0217_
*261 _0218_
*262 _0219_
*263 _0220_
*264 _0221_
*265 _0222_
*266 _0223_
*267 _0224_
*268 _0225_
*269 _0226_
*270 _0227_
*271 _0228_
*272 _0229_
*273 _0230_
*274 _0231_
*275 _0232_
*276 _0233_
*277 _0234_
*278 _0235_
*279 _0236_
*280 _0237_
*281 _0238_
*282 _0239_
*283 _0240_
*284 _0241_
*285 _0242_
*286 _0243_
*287 _0244_
*288 _0245_
*289 _0246_
*290 _0247_
*291 _0248_
*292 _0249_
*293 _0250_
*294 _0251_
*295 _0252_
*296 _0253_
*297 _0254_
*298 _0255_
*299 _0256_
*300 _0257_
*301 _0258_
*302 _0259_
*303 _0260_
*304 _0261_
*305 _0262_
*306 _0263_
*307 _0264_
*308 _0265_
*309 _0266_
*310 _0267_
*311 _0268_
*312 _0269_
*313 _0270_
*314 _0271_
*315 _0272_
*316 _0273_
*317 _0274_
*318 _0275_
*319 _0276_
*320 _0277_
*321 _0278_
*322 _0279_
*323 _0280_
*324 _0281_
*325 _0282_
*326 _0283_
*327 _0284_
*328 _0285_
*329 _0286_
*330 _0287_
*331 _0288_
*332 _0289_
*333 _0290_
*334 _0291_
*335 _0292_
*336 _0293_
*337 _0294_
*338 _0295_
*339 _0296_
*340 _0297_
*341 _0298_
*342 _0299_
*343 _0300_
*344 _0301_
*345 _0302_
*346 _0303_
*347 _0304_
*348 _0305_
*349 _0306_
*350 _0307_
*351 _0308_
*352 _0309_
*353 _0310_
*354 _0311_
*355 _0312_
*356 _0313_
*357 _0314_
*358 _0315_
*359 _0316_
*360 _0317_
*361 _0318_
*362 _0319_
*363 _0320_
*364 _0321_
*365 _0322_
*366 _0323_
*367 _0324_
*368 _0325_
*369 _0326_
*370 _0327_
*371 _0328_
*372 _0329_
*373 _0330_
*374 _0331_
*375 _0332_
*376 _0333_
*377 _0334_
*378 _0335_
*379 _0336_
*380 _0337_
*381 _0338_
*382 _0339_
*383 _0340_
*384 _0341_
*385 _0342_
*386 _0343_
*387 _0344_
*388 _0345_
*389 _0346_
*390 _0347_
*391 _0348_
*392 _0349_
*393 _0350_
*394 _0351_
*395 _0352_
*396 _0353_
*397 _0354_
*398 _0355_
*399 _0356_
*400 _0357_
*401 _0358_
*402 _0359_
*403 _0360_
*404 _0361_
*405 _0362_
*406 _0363_
*407 _0364_
*408 _0365_
*409 _0366_
*410 _0367_
*411 _0368_
*412 _0369_
*413 _0370_
*414 _0371_
*415 _0372_
*416 _0373_
*417 _0374_
*418 _0375_
*419 _0376_
*420 _0377_
*421 _0378_
*422 _0379_
*423 _0380_
*424 _0381_
*425 _0382_
*426 _0383_
*427 _0384_
*428 _0385_
*429 _0386_
*430 _0387_
*431 _0388_
*432 _0389_
*433 _0390_
*434 _0391_
*435 _0392_
*436 _0393_
*437 _0394_
*438 _0395_
*439 _0396_
*440 _0397_
*441 _0398_
*442 _0399_
*443 _0400_
*444 _0401_
*445 _0402_
*446 _0403_
*447 _0404_
*448 _0405_
*449 _0406_
*450 _0407_
*451 _0408_
*452 _0409_
*453 _0410_
*454 _0411_
*455 _0412_
*456 _0413_
*457 _0414_
*458 _0415_
*459 _0416_
*460 _0417_
*461 _0418_
*462 _0419_
*463 _0420_
*464 _0421_
*465 _0422_
*466 _0423_
*467 _0424_
*468 _0425_
*469 _0426_
*470 _0427_
*471 _0428_
*472 _0429_
*473 _0430_
*474 _0431_
*475 _0432_
*476 _0433_
*477 _0434_
*478 _0435_
*479 _0436_
*480 _0437_
*481 _0438_
*482 _0439_
*483 _0440_
*484 _0441_
*485 _0442_
*486 _0443_
*487 _0444_
*488 _0445_
*489 _0446_
*490 _0447_
*491 _0448_
*492 _0449_
*493 _0450_
*494 _0451_
*495 _0452_
*496 _0453_
*497 _0454_
*498 _0455_
*499 _0456_
*500 _0457_
*501 _0458_
*502 _0459_
*503 _0460_
*504 _0461_
*505 _0462_
*506 _0463_
*507 _0464_
*508 _0465_
*509 _0466_
*510 _0467_
*511 _0468_
*512 _0469_
*513 _0470_
*514 _0471_
*515 _0472_
*516 _0473_
*517 _0474_
*518 _0475_
*519 _0476_
*520 _0477_
*521 _0478_
*522 _0479_
*523 _0480_
*524 _0481_
*525 _0482_
*526 _0483_
*527 _0484_
*528 _0485_
*529 _0486_
*530 _0487_
*531 _0488_
*532 _0489_
*533 _0490_
*534 _0491_
*535 _0492_
*536 _0493_
*537 _0494_
*538 _0495_
*539 _0496_
*540 _0497_
*541 _0498_
*542 _0499_
*543 _0500_
*544 _0501_
*545 _0502_
*546 _0503_
*547 _0504_
*548 _0505_
*549 _0506_
*550 _0507_
*551 _0508_
*552 _0509_
*553 _0510_
*554 _0511_
*555 _0512_
*556 _0513_
*557 _0514_
*558 _0515_
*559 _0516_
*560 _0517_
*561 _0518_
*562 _0519_
*563 _0520_
*564 _0521_
*565 _0522_
*566 _0523_
*567 _0524_
*568 _0525_
*569 _0526_
*570 _0527_
*571 _0528_
*572 _0529_
*573 _0530_
*574 _0531_
*575 _0532_
*576 _0533_
*577 _0534_
*578 _0535_
*579 _0536_
*580 _0537_
*581 _0538_
*582 _0539_
*583 _0540_
*584 _0541_
*585 _0542_
*586 _0543_
*587 _0544_
*588 _0545_
*589 _0546_
*590 _0547_
*591 _0548_
*592 _0549_
*593 _0550_
*594 _0551_
*595 _0552_
*596 _0553_
*597 _0554_
*598 _0555_
*599 _0556_
*600 _0557_
*601 _0558_
*602 _0559_
*603 _0560_
*604 _0561_
*605 _0562_
*606 _0563_
*607 _0564_
*608 _0565_
*609 _0566_
*610 _0567_
*611 _0568_
*612 _0569_
*613 _0570_
*614 _0571_
*615 _0572_
*616 _0573_
*617 _0574_
*618 _0575_
*619 _0576_
*620 _0577_
*621 _0578_
*622 _0579_
*623 _0580_
*624 _0581_
*625 _0582_
*626 _0583_
*627 _0584_
*628 _0585_
*629 _0586_
*630 _0587_
*631 _0588_
*632 _0589_
*633 _0590_
*634 _0591_
*635 _0592_
*636 _0593_
*637 _0594_
*638 _0595_
*639 _0596_
*640 _0597_
*641 _0598_
*642 _0599_
*643 _0600_
*644 _0601_
*645 _0602_
*646 _0603_
*647 _0604_
*648 _0605_
*649 _0606_
*650 _0607_
*651 _0608_
*652 _0609_
*653 _0610_
*654 _0611_
*655 _0612_
*656 _0613_
*657 _0614_
*658 _0615_
*659 _0616_
*660 _0617_
*661 _0618_
*662 _0619_
*663 _0620_
*664 _0621_
*665 _0622_
*666 _0623_
*667 _0624_
*668 _0625_
*669 _0626_
*670 _0627_
*671 _0628_
*672 _0629_
*673 _0630_
*674 _0631_
*675 _0632_
*676 _0633_
*677 _0634_
*678 _0635_
*679 _0636_
*680 _0637_
*681 _0638_
*682 _0639_
*683 _0640_
*684 _0641_
*685 _0642_
*686 _0643_
*687 _0644_
*688 _0645_
*689 _0646_
*690 _0647_
*691 _0648_
*692 _0649_
*693 _0650_
*694 _0651_
*695 _0652_
*696 _0653_
*697 _0654_
*698 _0655_
*699 _0656_
*700 _0657_
*701 _0658_
*702 _0659_
*703 _0660_
*704 _0661_
*705 _0662_
*706 _0663_
*707 _0664_
*708 _0665_
*709 _0666_
*710 _0667_
*711 _0668_
*712 _0669_
*713 _0670_
*714 _0671_
*715 _0672_
*716 _0673_
*717 _0674_
*718 _0675_
*719 _0676_
*720 _0677_
*721 _0678_
*722 _0679_
*723 _0680_
*724 _0681_
*725 _0682_
*726 _0683_
*727 _0684_
*728 _0685_
*729 _0686_
*730 _0687_
*731 _0688_
*732 _0689_
*733 _0690_
*734 _0691_
*735 _0692_
*736 _0693_
*737 _0694_
*738 _0695_
*739 _0696_
*740 _0697_
*741 _0698_
*742 _0699_
*743 _0700_
*744 _0701_
*745 _0702_
*746 _0703_
*747 _0704_
*748 _0705_
*749 _0706_
*750 _0707_
*751 _0708_
*752 _0709_
*753 _0710_
*754 _0711_
*755 _0712_
*756 _0713_
*757 _0714_
*758 _0715_
*759 _0716_
*760 _0717_
*761 _0718_
*762 _0719_
*763 _0720_
*764 _0721_
*765 _0722_
*766 _0723_
*767 _0724_
*768 _0725_
*769 _0726_
*770 _0727_
*771 _0728_
*772 _0729_
*773 _0730_
*774 _0731_
*775 _0732_
*776 _0733_
*777 _0734_
*778 _0735_
*779 _0736_
*780 _0737_
*781 _0738_
*782 _0739_
*783 _0740_
*784 _0741_
*785 _0742_
*786 _0743_
*787 _0744_
*788 _0745_
*789 _0746_
*790 _0747_
*791 _0748_
*792 _0749_
*793 _0750_
*794 _0751_
*795 _0752_
*796 _0753_
*797 _0754_
*798 _0755_
*799 _0756_
*800 _0757_
*801 _0758_
*802 _0759_
*803 _0760_
*804 _0761_
*805 _0762_
*806 _0763_
*807 _0764_
*808 _0765_
*809 _0766_
*810 _0767_
*811 _0768_
*812 _0769_
*813 _0770_
*814 _0771_
*815 _0772_
*816 _0773_
*817 _0774_
*818 _0775_
*819 _0776_
*820 _0777_
*821 _0778_
*822 _0779_
*823 _0780_
*824 _0781_
*825 _0782_
*826 _0783_
*827 _0784_
*828 _0785_
*829 _0786_
*830 _0787_
*831 _0788_
*832 _0789_
*833 _0790_
*834 _0791_
*835 _0792_
*836 _0793_
*837 _0794_
*838 _0795_
*839 _0796_
*840 _0797_
*841 _0798_
*842 _0799_
*843 _0800_
*844 _0801_
*845 _0802_
*846 _0803_
*847 _0804_
*848 _0805_
*849 _0806_
*850 _0807_
*851 _0808_
*852 _0809_
*853 _0810_
*854 _0811_
*855 _0812_
*856 _0813_
*857 _0814_
*858 _0815_
*859 _0816_
*860 _0817_
*861 _0818_
*862 _0819_
*863 _0820_
*864 _0821_
*865 _0822_
*866 _0823_
*867 _0824_
*868 _0825_
*869 _0826_
*870 _0827_
*871 _0828_
*872 _0829_
*873 _0830_
*874 _0831_
*875 _0832_
*876 _0833_
*877 _0834_
*878 _0835_
*879 _0836_
*880 _0837_
*881 _0838_
*882 _0839_
*883 _0840_
*884 _0841_
*885 _0842_
*886 _0843_
*887 _0844_
*888 _0845_
*889 _0846_
*890 _0847_
*891 _0848_
*892 _0849_
*893 _0850_
*894 _0851_
*895 _0852_
*896 _0853_
*897 _0854_
*898 _0855_
*899 _0856_
*900 _0857_
*901 _0858_
*902 _0859_
*903 _0860_
*904 _0861_
*905 _0862_
*906 _0863_
*907 _0864_
*908 _0865_
*909 _0866_
*910 _0867_
*911 _0868_
*912 _0869_
*913 _0870_
*914 _0871_
*915 _0872_
*916 _0873_
*917 _0874_
*918 _0875_
*919 _0876_
*920 _0877_
*921 _0878_
*922 _0879_
*923 _0880_
*924 _0881_
*925 _0882_
*926 _0883_
*927 _0884_
*928 _0885_
*929 _0886_
*930 _0887_
*931 _0888_
*932 _0889_
*933 _0890_
*934 _0891_
*935 _0892_
*936 _0893_
*937 _0894_
*938 _0895_
*939 _0896_
*940 _0897_
*941 _0898_
*942 _0899_
*943 _0900_
*944 _0901_
*945 _0902_
*946 _0903_
*947 _0904_
*948 _0905_
*949 _0906_
*950 _0907_
*951 _0908_
*952 _0909_
*953 _0910_
*954 _0911_
*955 _0912_
*956 _0913_
*957 _0914_
*958 _0915_
*959 _0916_
*960 _0917_
*961 _0918_
*962 _0919_
*963 _0920_
*964 _0921_
*965 _0922_
*966 _0923_
*967 _0924_
*968 _0925_
*969 _0926_
*970 _0927_
*971 _0928_
*972 _0929_
*973 _0930_
*974 _0931_
*975 _0932_
*976 _0933_
*977 _0934_
*978 _0935_
*979 _0936_
*980 _0937_
*981 _0938_
*982 _0939_
*983 _0940_
*984 _0941_
*985 _0942_
*986 _0943_
*987 _0944_
*988 _0945_
*989 _0946_
*990 _0947_
*991 _0948_
*992 _0949_
*993 _0950_
*994 _0951_
*995 _0952_
*996 _0953_
*997 _0954_
*998 _0955_
*999 _0956_
*1000 _0957_
*1001 _0958_
*1002 _0959_
*1003 _0960_
*1004 _0961_
*1005 _0962_
*1006 _0963_
*1007 _0964_
*1008 _0965_
*1009 _0966_
*1010 _0967_
*1011 _0968_
*1012 _0969_
*1013 _0970_
*1014 _0971_
*1015 _0972_
*1016 _0973_
*1017 _0974_
*1018 _0975_
*1019 _0976_
*1020 _0977_
*1021 _0978_
*1022 _0979_
*1023 _0980_
*1024 _0981_
*1025 _0982_
*1026 _0983_
*1027 _0984_
*1028 _0985_
*1029 _0986_
*1030 _0987_
*1031 _0988_
*1032 _0989_
*1033 _0990_
*1034 _0991_
*1035 _0992_
*1036 _0993_
*1037 _0994_
*1038 _0995_
*1039 _0996_
*1040 _0997_
*1041 _0998_
*1042 _0999_
*1043 _1000_
*1044 _1001_
*1045 _1002_
*1046 _1003_
*1047 _1004_
*1048 _1005_
*1049 _1006_
*1050 _1007_
*1051 _1008_
*1052 _1009_
*1053 _1010_
*1054 _1011_
*1055 _1012_
*1056 _1013_
*1057 _1014_
*1058 _1015_
*1059 _1016_
*1060 _1017_
*1061 _1018_
*1062 _1019_
*1063 _1020_
*1064 _1021_
*1065 _1022_
*1066 _1023_
*1067 _1024_
*1068 _1025_
*1069 _1026_
*1070 _1027_
*1071 _1028_
*1072 _1029_
*1073 _1030_
*1074 _1031_
*1075 _1032_
*1076 _1033_
*1077 _1034_
*1078 _1035_
*1079 _1036_
*1080 _1037_
*1081 _1038_
*1082 _1039_
*1083 _1040_
*1084 _1041_
*1085 _1042_
*1086 _1043_
*1087 _1044_
*1088 _1045_
*1089 _1046_
*1090 _1047_
*1091 _1048_
*1092 _1049_
*1093 _1050_
*1094 _1051_
*1095 _1052_
*1096 _1053_
*1097 _1054_
*1098 _1055_
*1099 _1056_
*1100 _1057_
*1101 _1058_
*1102 _1059_
*1103 _1060_
*1104 _1061_
*1105 _1062_
*1106 _1063_
*1107 _1064_
*1108 _1065_
*1109 _1066_
*1110 _1067_
*1111 _1068_
*1112 _1069_
*1113 _1070_
*1114 _1071_
*1115 _1072_
*1116 _1073_
*1117 _1074_
*1118 _1075_
*1119 _1076_
*1120 _1077_
*1121 _1078_
*1122 _1079_
*1123 _1080_
*1124 _1081_
*1125 _1082_
*1126 _1083_
*1127 _1084_
*1128 _1085_
*1129 _1086_
*1130 _1087_
*1131 _1088_
*1132 _1089_
*1133 _1090_
*1134 _1091_
*1135 _1092_
*1136 _1093_
*1137 _1094_
*1138 _1095_
*1139 _1096_
*1140 _1097_
*1141 _1098_
*1142 _1099_
*1143 _1100_
*1144 _1101_
*1145 _1102_
*1146 _1103_
*1147 _1104_
*1148 _1105_
*1149 _1106_
*1150 _1107_
*1151 _1108_
*1152 _1109_
*1153 _1110_
*1154 _1111_
*1155 _1112_
*1156 _1113_
*1157 _1114_
*1158 _1115_
*1159 _1116_
*1160 _1117_
*1161 _1118_
*1162 _1119_
*1163 _1120_
*1164 _1121_
*1165 _1122_
*1166 _1123_
*1167 _1124_
*1168 _1125_
*1169 _1126_
*1170 _1127_
*1171 _1128_
*1172 _1129_
*1173 _1130_
*1174 _1131_
*1175 _1132_
*1176 _1133_
*1177 _1134_
*1178 _1135_
*1179 _1136_
*1180 _1137_
*1181 _1138_
*1182 _1139_
*1183 _1140_
*1184 _1141_
*1185 _1142_
*1186 _1143_
*1187 _1144_
*1188 _1145_
*1189 _1146_
*1190 _1147_
*1191 _1148_
*1192 _1149_
*1193 _1150_
*1194 _1151_
*1195 _1152_
*1196 _1153_
*1197 _1154_
*1198 _1155_
*1199 _1156_
*1200 _1157_
*1201 _1158_
*1202 _1159_
*1203 _1160_
*1204 _1161_
*1205 _1162_
*1206 _1163_
*1207 _1164_
*1208 _1165_
*1209 _1166_
*1210 _1167_
*1211 _1168_
*1212 _1169_
*1213 _1170_
*1214 _1171_
*1215 _1172_
*1216 _1173_
*1217 _1174_
*1218 _1175_
*1219 _1176_
*1220 _1177_
*1221 _1178_
*1222 _1179_
*1223 _1180_
*1224 _1181_
*1225 _1182_
*1226 _1183_
*1227 _1184_
*1228 _1185_
*1229 _1186_
*1230 _1187_
*1231 _1188_
*1232 _1189_
*1233 _1190_
*1234 _1191_
*1235 _1192_
*1236 _1193_
*1237 _1194_
*1238 _1195_
*1239 _1196_
*1240 _1197_
*1241 _1198_
*1242 _1199_
*1243 _1200_
*1244 _1201_
*1245 _1202_
*1246 _1203_
*1247 _1204_
*1248 _1205_
*1249 _1206_
*1250 _1207_
*1251 _1208_
*1252 _1209_
*1253 _1210_
*1254 _1211_
*1255 _1212_
*1256 _1213_
*1257 _1214_
*1258 _1215_
*1259 _1216_
*1260 _1217_
*1261 _1218_
*1262 _1219_
*1263 _1220_
*1264 _1221_
*1265 _1222_
*1266 _1223_
*1267 _1224_
*1268 _1225_
*1269 _1226_
*1270 _1227_
*1271 _1228_
*1272 _1229_
*1273 _1230_
*1274 _1231_
*1275 _1232_
*1276 _1233_
*1277 _1234_
*1278 _1235_
*1279 _1236_
*1280 _1237_
*1281 _1238_
*1282 _1239_
*1283 _1240_
*1284 _1241_
*1285 _1242_
*1286 _1243_
*1287 _1244_
*1288 _1245_
*1289 _1246_
*1290 _1247_
*1291 _1248_
*1292 _1249_
*1293 _1250_
*1294 _1251_
*1295 _1252_
*1296 _1253_
*1297 _1254_
*1298 _1255_
*1299 clknet_0_clk
*1300 clknet_2_0__leaf_clk
*1301 clknet_2_1__leaf_clk
*1302 clknet_2_2__leaf_clk
*1303 clknet_2_3__leaf_clk
*1304 clknet_leaf_0_clk
*1305 clknet_leaf_10_clk
*1306 clknet_leaf_11_clk
*1307 clknet_leaf_12_clk
*1308 clknet_leaf_13_clk
*1309 clknet_leaf_14_clk
*1310 clknet_leaf_15_clk
*1311 clknet_leaf_16_clk
*1312 clknet_leaf_17_clk
*1313 clknet_leaf_18_clk
*1314 clknet_leaf_19_clk
*1315 clknet_leaf_1_clk
*1316 clknet_leaf_20_clk
*1317 clknet_leaf_21_clk
*1318 clknet_leaf_22_clk
*1319 clknet_leaf_23_clk
*1320 clknet_leaf_24_clk
*1321 clknet_leaf_25_clk
*1322 clknet_leaf_26_clk
*1323 clknet_leaf_27_clk
*1324 clknet_leaf_28_clk
*1325 clknet_leaf_29_clk
*1326 clknet_leaf_2_clk
*1327 clknet_leaf_30_clk
*1328 clknet_leaf_31_clk
*1329 clknet_leaf_32_clk
*1330 clknet_leaf_33_clk
*1331 clknet_leaf_34_clk
*1332 clknet_leaf_35_clk
*1333 clknet_leaf_36_clk
*1334 clknet_leaf_37_clk
*1335 clknet_leaf_38_clk
*1336 clknet_leaf_39_clk
*1337 clknet_leaf_3_clk
*1338 clknet_leaf_40_clk
*1339 clknet_leaf_41_clk
*1340 clknet_leaf_42_clk
*1341 clknet_leaf_43_clk
*1342 clknet_leaf_4_clk
*1343 clknet_leaf_5_clk
*1344 clknet_leaf_6_clk
*1345 clknet_leaf_7_clk
*1346 clknet_leaf_8_clk
*1347 clknet_leaf_9_clk
*1348 data_bits\[0\]
*1349 data_bits\[1\]
*1350 divisor\[0\]
*1351 divisor\[10\]
*1352 divisor\[11\]
*1353 divisor\[12\]
*1354 divisor\[13\]
*1355 divisor\[14\]
*1356 divisor\[15\]
*1357 divisor\[1\]
*1358 divisor\[2\]
*1359 divisor\[3\]
*1360 divisor\[4\]
*1361 divisor\[5\]
*1362 divisor\[6\]
*1363 divisor\[7\]
*1364 divisor\[8\]
*1365 divisor\[9\]
*1366 loopback_en
*1367 net1
*1368 net10
*1369 net100
*1370 net101
*1371 net102
*1372 net103
*1373 net104
*1374 net105
*1375 net106
*1376 net107
*1377 net108
*1378 net109
*1379 net11
*1380 net110
*1381 net111
*1382 net112
*1383 net113
*1384 net114
*1385 net115
*1386 net116
*1387 net117
*1388 net118
*1389 net119
*1390 net12
*1391 net120
*1392 net121
*1393 net122
*1394 net123
*1395 net124
*1396 net125
*1397 net126
*1398 net127
*1399 net128
*1400 net129
*1401 net13
*1402 net130
*1403 net131
*1404 net132
*1405 net133
*1406 net134
*1407 net135
*1408 net136
*1409 net137
*1410 net138
*1411 net139
*1412 net14
*1413 net140
*1414 net141
*1415 net142
*1416 net143
*1417 net144
*1418 net145
*1419 net146
*1420 net147
*1421 net148
*1422 net149
*1423 net15
*1424 net150
*1425 net151
*1426 net152
*1427 net153
*1428 net154
*1429 net155
*1430 net156
*1431 net157
*1432 net158
*1433 net159
*1434 net16
*1435 net160
*1436 net161
*1437 net162
*1438 net163
*1439 net164
*1440 net165
*1441 net166
*1442 net167
*1443 net168
*1444 net169
*1445 net17
*1446 net170
*1447 net171
*1448 net172
*1449 net173
*1450 net174
*1451 net175
*1452 net176
*1453 net177
*1454 net178
*1455 net179
*1456 net18
*1457 net180
*1458 net181
*1459 net182
*1460 net183
*1461 net184
*1462 net185
*1463 net186
*1464 net187
*1465 net188
*1466 net189
*1467 net19
*1468 net190
*1469 net191
*1470 net192
*1471 net193
*1472 net194
*1473 net195
*1474 net196
*1475 net197
*1476 net198
*1477 net199
*1478 net2
*1479 net20
*1480 net200
*1481 net201
*1482 net202
*1483 net203
*1484 net204
*1485 net205
*1486 net206
*1487 net207
*1488 net208
*1489 net209
*1490 net21
*1491 net210
*1492 net211
*1493 net212
*1494 net213
*1495 net214
*1496 net215
*1497 net216
*1498 net217
*1499 net218
*1500 net219
*1501 net22
*1502 net220
*1503 net221
*1504 net222
*1505 net223
*1506 net224
*1507 net225
*1508 net226
*1509 net227
*1510 net228
*1511 net229
*1512 net23
*1513 net230
*1514 net231
*1515 net232
*1516 net233
*1517 net234
*1518 net235
*1519 net236
*1520 net237
*1521 net238
*1522 net239
*1523 net24
*1524 net240
*1525 net241
*1526 net242
*1527 net243
*1528 net244
*1529 net245
*1530 net246
*1531 net247
*1532 net248
*1533 net249
*1534 net25
*1535 net250
*1536 net251
*1537 net252
*1538 net253
*1539 net254
*1540 net255
*1541 net256
*1542 net257
*1543 net258
*1544 net259
*1545 net26
*1546 net260
*1547 net261
*1548 net262
*1549 net263
*1550 net264
*1551 net265
*1552 net266
*1553 net267
*1554 net268
*1555 net269
*1556 net27
*1557 net270
*1558 net271
*1559 net272
*1560 net273
*1561 net274
*1562 net275
*1563 net276
*1564 net277
*1565 net278
*1566 net279
*1567 net28
*1568 net280
*1569 net281
*1570 net282
*1571 net283
*1572 net284
*1573 net285
*1574 net286
*1575 net287
*1576 net288
*1577 net289
*1578 net29
*1579 net290
*1580 net291
*1581 net292
*1582 net293
*1583 net294
*1584 net295
*1585 net296
*1586 net297
*1587 net298
*1588 net299
*1589 net3
*1590 net30
*1591 net300
*1592 net301
*1593 net302
*1594 net303
*1595 net304
*1596 net305
*1597 net306
*1598 net307
*1599 net308
*1600 net309
*1601 net31
*1602 net310
*1603 net311
*1604 net312
*1605 net313
*1606 net314
*1607 net315
*1608 net316
*1609 net317
*1610 net318
*1611 net319
*1612 net32
*1613 net320
*1614 net321
*1615 net322
*1616 net323
*1617 net324
*1618 net325
*1619 net326
*1620 net327
*1621 net328
*1622 net329
*1623 net33
*1624 net330
*1625 net331
*1626 net332
*1627 net333
*1628 net334
*1629 net335
*1630 net336
*1631 net337
*1632 net338
*1633 net339
*1634 net34
*1635 net340
*1636 net341
*1637 net342
*1638 net343
*1639 net344
*1640 net345
*1641 net346
*1642 net347
*1643 net348
*1644 net349
*1645 net35
*1646 net350
*1647 net351
*1648 net352
*1649 net353
*1650 net354
*1651 net355
*1652 net356
*1653 net357
*1654 net358
*1655 net359
*1656 net36
*1657 net360
*1658 net361
*1659 net362
*1660 net363
*1661 net364
*1662 net365
*1663 net366
*1664 net367
*1665 net368
*1666 net369
*1667 net37
*1668 net370
*1669 net371
*1670 net372
*1671 net373
*1672 net374
*1673 net375
*1674 net376
*1675 net377
*1676 net378
*1677 net379
*1678 net38
*1679 net380
*1680 net381
*1681 net382
*1682 net383
*1683 net384
*1684 net385
*1685 net386
*1686 net387
*1687 net388
*1688 net389
*1689 net39
*1690 net390
*1691 net4
*1692 net40
*1693 net41
*1694 net42
*1695 net43
*1696 net44
*1697 net45
*1698 net46
*1699 net47
*1700 net48
*1701 net49
*1702 net5
*1703 net50
*1704 net51
*1705 net52
*1706 net53
*1707 net54
*1708 net55
*1709 net56
*1710 net57
*1711 net58
*1712 net59
*1713 net6
*1714 net60
*1715 net61
*1716 net62
*1717 net63
*1718 net64
*1719 net65
*1720 net66
*1721 net67
*1722 net68
*1723 net69
*1724 net7
*1725 net70
*1726 net71
*1727 net72
*1728 net73
*1729 net74
*1730 net75
*1731 net76
*1732 net77
*1733 net78
*1734 net79
*1735 net8
*1736 net80
*1737 net81
*1738 net82
*1739 net83
*1740 net84
*1741 net85
*1742 net86
*1743 net87
*1744 net88
*1745 net89
*1746 net9
*1747 net90
*1748 net91
*1749 net92
*1750 net93
*1751 net94
*1752 net95
*1753 net96
*1754 net97
*1755 net98
*1756 net99
*1757 parity_en
*1758 parity_type
*1759 regs\.dlab
*1760 regs\.dlh\[0\]
*1761 regs\.dlh\[1\]
*1762 regs\.dlh\[2\]
*1763 regs\.dlh\[3\]
*1764 regs\.dlh\[4\]
*1765 regs\.dlh\[5\]
*1766 regs\.dlh\[6\]
*1767 regs\.dlh\[7\]
*1768 regs\.err_pending
*1769 regs\.ier\[0\]
*1770 regs\.ier\[1\]
*1771 regs\.ier\[2\]
*1772 regs\.ier\[3\]
*1773 regs\.int_pending
*1774 regs\.lcr\[2\]
*1775 regs\.lcr\[5\]
*1776 regs\.lcr\[6\]
*1777 regs\.mcr_reg\[5\]
*1778 regs\.mcr_reg\[6\]
*1779 regs\.mcr_reg\[7\]
*1780 regs\.oe
*1781 regs\.rx_data\[0\]
*1782 regs\.rx_data\[1\]
*1783 regs\.rx_data\[2\]
*1784 regs\.rx_data\[3\]
*1785 regs\.rx_data\[4\]
*1786 regs\.rx_data\[5\]
*1787 regs\.rx_data\[6\]
*1788 regs\.rx_data\[7\]
*1789 regs\.rx_fifo_clear
*1790 regs\.rx_fifo_pop
*1791 regs\.tx_data\[0\]
*1792 regs\.tx_data\[1\]
*1793 regs\.tx_data\[2\]
*1794 regs\.tx_data\[3\]
*1795 regs\.tx_data\[4\]
*1796 regs\.tx_data\[5\]
*1797 regs\.tx_data\[6\]
*1798 regs\.tx_data\[7\]
*1799 regs\.tx_fifo_clear
*1800 regs\.tx_start
*1801 rx\.baud_cnt\[0\]
*1802 rx\.baud_cnt\[10\]
*1803 rx\.baud_cnt\[11\]
*1804 rx\.baud_cnt\[12\]
*1805 rx\.baud_cnt\[13\]
*1806 rx\.baud_cnt\[14\]
*1807 rx\.baud_cnt\[15\]
*1808 rx\.baud_cnt\[1\]
*1809 rx\.baud_cnt\[2\]
*1810 rx\.baud_cnt\[3\]
*1811 rx\.baud_cnt\[4\]
*1812 rx\.baud_cnt\[5\]
*1813 rx\.baud_cnt\[6\]
*1814 rx\.baud_cnt\[7\]
*1815 rx\.baud_cnt\[8\]
*1816 rx\.baud_cnt\[9\]
*1817 rx\.bit_cnt\[0\]
*1818 rx\.bit_cnt\[1\]
*1819 rx\.bit_cnt\[2\]
*1820 rx\.break_int
*1821 rx\.break_int_lat
*1822 rx\.dr
*1823 rx\.framing_err
*1824 rx\.parity_err
*1825 rx\.parity_err_lat
*1826 rx\.sample_cnt\[0\]
*1827 rx\.sample_cnt\[1\]
*1828 rx\.sample_cnt\[2\]
*1829 rx\.sample_cnt\[3\]
*1830 rx\.shift_reg\[0\]
*1831 rx\.shift_reg\[1\]
*1832 rx\.shift_reg\[2\]
*1833 rx\.shift_reg\[3\]
*1834 rx\.shift_reg\[4\]
*1835 rx\.shift_reg\[5\]
*1836 rx\.shift_reg\[6\]
*1837 rx\.shift_reg\[7\]
*1838 rx\.state\[0\]
*1839 rx\.state\[1\]
*1840 rx\.state\[2\]
*1841 rx_fifo\.count\[0\]
*1842 rx_fifo\.count\[1\]
*1843 rx_fifo\.count\[2\]
*1844 rx_fifo\.count\[3\]
*1845 rx_fifo\.count\[4\]
*1846 rx_fifo\.fifo\[0\]\[0\]
*1847 rx_fifo\.fifo\[0\]\[10\]
*1848 rx_fifo\.fifo\[0\]\[1\]
*1849 rx_fifo\.fifo\[0\]\[2\]
*1850 rx_fifo\.fifo\[0\]\[3\]
*1851 rx_fifo\.fifo\[0\]\[4\]
*1852 rx_fifo\.fifo\[0\]\[5\]
*1853 rx_fifo\.fifo\[0\]\[6\]
*1854 rx_fifo\.fifo\[0\]\[7\]
*1855 rx_fifo\.fifo\[0\]\[8\]
*1856 rx_fifo\.fifo\[0\]\[9\]
*1857 rx_fifo\.fifo\[10\]\[0\]
*1858 rx_fifo\.fifo\[10\]\[10\]
*1859 rx_fifo\.fifo\[10\]\[1\]
*1860 rx_fifo\.fifo\[10\]\[2\]
*1861 rx_fifo\.fifo\[10\]\[3\]
*1862 rx_fifo\.fifo\[10\]\[4\]
*1863 rx_fifo\.fifo\[10\]\[5\]
*1864 rx_fifo\.fifo\[10\]\[6\]
*1865 rx_fifo\.fifo\[10\]\[7\]
*1866 rx_fifo\.fifo\[10\]\[8\]
*1867 rx_fifo\.fifo\[10\]\[9\]
*1868 rx_fifo\.fifo\[11\]\[0\]
*1869 rx_fifo\.fifo\[11\]\[10\]
*1870 rx_fifo\.fifo\[11\]\[1\]
*1871 rx_fifo\.fifo\[11\]\[2\]
*1872 rx_fifo\.fifo\[11\]\[3\]
*1873 rx_fifo\.fifo\[11\]\[4\]
*1874 rx_fifo\.fifo\[11\]\[5\]
*1875 rx_fifo\.fifo\[11\]\[6\]
*1876 rx_fifo\.fifo\[11\]\[7\]
*1877 rx_fifo\.fifo\[11\]\[8\]
*1878 rx_fifo\.fifo\[11\]\[9\]
*1879 rx_fifo\.fifo\[12\]\[0\]
*1880 rx_fifo\.fifo\[12\]\[10\]
*1881 rx_fifo\.fifo\[12\]\[1\]
*1882 rx_fifo\.fifo\[12\]\[2\]
*1883 rx_fifo\.fifo\[12\]\[3\]
*1884 rx_fifo\.fifo\[12\]\[4\]
*1885 rx_fifo\.fifo\[12\]\[5\]
*1886 rx_fifo\.fifo\[12\]\[6\]
*1887 rx_fifo\.fifo\[12\]\[7\]
*1888 rx_fifo\.fifo\[12\]\[8\]
*1889 rx_fifo\.fifo\[12\]\[9\]
*1890 rx_fifo\.fifo\[13\]\[0\]
*1891 rx_fifo\.fifo\[13\]\[10\]
*1892 rx_fifo\.fifo\[13\]\[1\]
*1893 rx_fifo\.fifo\[13\]\[2\]
*1894 rx_fifo\.fifo\[13\]\[3\]
*1895 rx_fifo\.fifo\[13\]\[4\]
*1896 rx_fifo\.fifo\[13\]\[5\]
*1897 rx_fifo\.fifo\[13\]\[6\]
*1898 rx_fifo\.fifo\[13\]\[7\]
*1899 rx_fifo\.fifo\[13\]\[8\]
*1900 rx_fifo\.fifo\[13\]\[9\]
*1901 rx_fifo\.fifo\[14\]\[0\]
*1902 rx_fifo\.fifo\[14\]\[10\]
*1903 rx_fifo\.fifo\[14\]\[1\]
*1904 rx_fifo\.fifo\[14\]\[2\]
*1905 rx_fifo\.fifo\[14\]\[3\]
*1906 rx_fifo\.fifo\[14\]\[4\]
*1907 rx_fifo\.fifo\[14\]\[5\]
*1908 rx_fifo\.fifo\[14\]\[6\]
*1909 rx_fifo\.fifo\[14\]\[7\]
*1910 rx_fifo\.fifo\[14\]\[8\]
*1911 rx_fifo\.fifo\[14\]\[9\]
*1912 rx_fifo\.fifo\[15\]\[0\]
*1913 rx_fifo\.fifo\[15\]\[10\]
*1914 rx_fifo\.fifo\[15\]\[1\]
*1915 rx_fifo\.fifo\[15\]\[2\]
*1916 rx_fifo\.fifo\[15\]\[3\]
*1917 rx_fifo\.fifo\[15\]\[4\]
*1918 rx_fifo\.fifo\[15\]\[5\]
*1919 rx_fifo\.fifo\[15\]\[6\]
*1920 rx_fifo\.fifo\[15\]\[7\]
*1921 rx_fifo\.fifo\[15\]\[8\]
*1922 rx_fifo\.fifo\[15\]\[9\]
*1923 rx_fifo\.fifo\[1\]\[0\]
*1924 rx_fifo\.fifo\[1\]\[10\]
*1925 rx_fifo\.fifo\[1\]\[1\]
*1926 rx_fifo\.fifo\[1\]\[2\]
*1927 rx_fifo\.fifo\[1\]\[3\]
*1928 rx_fifo\.fifo\[1\]\[4\]
*1929 rx_fifo\.fifo\[1\]\[5\]
*1930 rx_fifo\.fifo\[1\]\[6\]
*1931 rx_fifo\.fifo\[1\]\[7\]
*1932 rx_fifo\.fifo\[1\]\[8\]
*1933 rx_fifo\.fifo\[1\]\[9\]
*1934 rx_fifo\.fifo\[2\]\[0\]
*1935 rx_fifo\.fifo\[2\]\[10\]
*1936 rx_fifo\.fifo\[2\]\[1\]
*1937 rx_fifo\.fifo\[2\]\[2\]
*1938 rx_fifo\.fifo\[2\]\[3\]
*1939 rx_fifo\.fifo\[2\]\[4\]
*1940 rx_fifo\.fifo\[2\]\[5\]
*1941 rx_fifo\.fifo\[2\]\[6\]
*1942 rx_fifo\.fifo\[2\]\[7\]
*1943 rx_fifo\.fifo\[2\]\[8\]
*1944 rx_fifo\.fifo\[2\]\[9\]
*1945 rx_fifo\.fifo\[3\]\[0\]
*1946 rx_fifo\.fifo\[3\]\[10\]
*1947 rx_fifo\.fifo\[3\]\[1\]
*1948 rx_fifo\.fifo\[3\]\[2\]
*1949 rx_fifo\.fifo\[3\]\[3\]
*1950 rx_fifo\.fifo\[3\]\[4\]
*1951 rx_fifo\.fifo\[3\]\[5\]
*1952 rx_fifo\.fifo\[3\]\[6\]
*1953 rx_fifo\.fifo\[3\]\[7\]
*1954 rx_fifo\.fifo\[3\]\[8\]
*1955 rx_fifo\.fifo\[3\]\[9\]
*1956 rx_fifo\.fifo\[4\]\[0\]
*1957 rx_fifo\.fifo\[4\]\[10\]
*1958 rx_fifo\.fifo\[4\]\[1\]
*1959 rx_fifo\.fifo\[4\]\[2\]
*1960 rx_fifo\.fifo\[4\]\[3\]
*1961 rx_fifo\.fifo\[4\]\[4\]
*1962 rx_fifo\.fifo\[4\]\[5\]
*1963 rx_fifo\.fifo\[4\]\[6\]
*1964 rx_fifo\.fifo\[4\]\[7\]
*1965 rx_fifo\.fifo\[4\]\[8\]
*1966 rx_fifo\.fifo\[4\]\[9\]
*1967 rx_fifo\.fifo\[5\]\[0\]
*1968 rx_fifo\.fifo\[5\]\[10\]
*1969 rx_fifo\.fifo\[5\]\[1\]
*1970 rx_fifo\.fifo\[5\]\[2\]
*1971 rx_fifo\.fifo\[5\]\[3\]
*1972 rx_fifo\.fifo\[5\]\[4\]
*1973 rx_fifo\.fifo\[5\]\[5\]
*1974 rx_fifo\.fifo\[5\]\[6\]
*1975 rx_fifo\.fifo\[5\]\[7\]
*1976 rx_fifo\.fifo\[5\]\[8\]
*1977 rx_fifo\.fifo\[5\]\[9\]
*1978 rx_fifo\.fifo\[6\]\[0\]
*1979 rx_fifo\.fifo\[6\]\[10\]
*1980 rx_fifo\.fifo\[6\]\[1\]
*1981 rx_fifo\.fifo\[6\]\[2\]
*1982 rx_fifo\.fifo\[6\]\[3\]
*1983 rx_fifo\.fifo\[6\]\[4\]
*1984 rx_fifo\.fifo\[6\]\[5\]
*1985 rx_fifo\.fifo\[6\]\[6\]
*1986 rx_fifo\.fifo\[6\]\[7\]
*1987 rx_fifo\.fifo\[6\]\[8\]
*1988 rx_fifo\.fifo\[6\]\[9\]
*1989 rx_fifo\.fifo\[7\]\[0\]
*1990 rx_fifo\.fifo\[7\]\[10\]
*1991 rx_fifo\.fifo\[7\]\[1\]
*1992 rx_fifo\.fifo\[7\]\[2\]
*1993 rx_fifo\.fifo\[7\]\[3\]
*1994 rx_fifo\.fifo\[7\]\[4\]
*1995 rx_fifo\.fifo\[7\]\[5\]
*1996 rx_fifo\.fifo\[7\]\[6\]
*1997 rx_fifo\.fifo\[7\]\[7\]
*1998 rx_fifo\.fifo\[7\]\[8\]
*1999 rx_fifo\.fifo\[7\]\[9\]
*2000 rx_fifo\.fifo\[8\]\[0\]
*2001 rx_fifo\.fifo\[8\]\[10\]
*2002 rx_fifo\.fifo\[8\]\[1\]
*2003 rx_fifo\.fifo\[8\]\[2\]
*2004 rx_fifo\.fifo\[8\]\[3\]
*2005 rx_fifo\.fifo\[8\]\[4\]
*2006 rx_fifo\.fifo\[8\]\[5\]
*2007 rx_fifo\.fifo\[8\]\[6\]
*2008 rx_fifo\.fifo\[8\]\[7\]
*2009 rx_fifo\.fifo\[8\]\[8\]
*2010 rx_fifo\.fifo\[8\]\[9\]
*2011 rx_fifo\.fifo\[9\]\[0\]
*2012 rx_fifo\.fifo\[9\]\[10\]
*2013 rx_fifo\.fifo\[9\]\[1\]
*2014 rx_fifo\.fifo\[9\]\[2\]
*2015 rx_fifo\.fifo\[9\]\[3\]
*2016 rx_fifo\.fifo\[9\]\[4\]
*2017 rx_fifo\.fifo\[9\]\[5\]
*2018 rx_fifo\.fifo\[9\]\[6\]
*2019 rx_fifo\.fifo\[9\]\[7\]