* NGSPICE file created from uart_top.ext - technology: sky130A

* Black-box entry subcircuit for sky130_fd_sc_hd__fill_2 abstract view
.subckt sky130_fd_sc_hd__fill_2 VGND VNB VPB VPWR
.ends

* Black-box entry subcircuit for sky130_fd_sc_hd__tapvpwrvgnd_1 abstract view
.subckt sky130_fd_sc_hd__tapvpwrvgnd_1 VGND VPWR
.ends

* Black-box entry subcircuit for sky130_fd_sc_hd__nand2_1 abstract view
.subckt sky130_fd_sc_hd__nand2_1 A B VGND VNB VPB VPWR Y
.ends

* Black-box entry subcircuit for sky130_fd_sc_hd__and4b_4 abstract view
.subckt sky130_fd_sc_hd__and4b_4 A_N B C D VGND VNB VPB VPWR X
.ends

* Black-box entry subcircuit for sky130_ef_sc_hd__decap_12 abstract view
.subckt sky130_ef_sc_hd__decap_12 VPWR VGND VPB VNB
.ends

* Black-box entry subcircuit for sky130_fd_sc_hd__fill_1 abstract view
.subckt sky130_fd_sc_hd__fill_1 VGND VNB VPB VPWR
.ends

* Black-box entry subcircuit for sky130_fd_sc_hd__dfrtp_4 abstract view
.subckt sky130_fd_sc_hd__dfrtp_4 CLK D RESET_B VGND VNB VPB VPWR Q
.ends

* Black-box entry subcircuit for sky130_fd_sc_hd__decap_4 abstract view
.subckt sky130_fd_sc_hd__decap_4 VGND VNB VPB VPWR
.ends

* Black-box entry subcircuit for sky130_fd_sc_hd__decap_6 abstract view
.subckt sky130_fd_sc_hd__decap_6 VGND VNB VPB VPWR
.ends

* Black-box entry subcircuit for sky130_fd_sc_hd__nor3_1 abstract view
.subckt sky130_fd_sc_hd__nor3_1 A B C VGND VNB VPB VPWR Y
.ends

* Black-box entry subcircuit for sky130_fd_sc_hd__decap_8 abstract view
.subckt sky130_fd_sc_hd__decap_8 VGND VNB VPB VPWR
.ends

* Black-box entry subcircuit for sky130_fd_sc_hd__edfxtp_1 abstract view
.subckt sky130_fd_sc_hd__edfxtp_1 CLK D DE VGND VNB VPB VPWR Q
.ends

* Black-box entry subcircuit for sky130_fd_sc_hd__a221o_1 abstract view
.subckt sky130_fd_sc_hd__a221o_1 A1 A2 B1 B2 C1 VGND VNB VPB VPWR X
.ends

* Black-box entry subcircuit for sky130_fd_sc_hd__nand4_1 abstract view
.subckt sky130_fd_sc_hd__nand4_1 A B C D VGND VNB VPB VPWR Y
.ends

* Black-box entry subcircuit for sky130_fd_sc_hd__xnor2_1 abstract view
.subckt sky130_fd_sc_hd__xnor2_1 A B VGND VNB VPB VPWR Y
.ends

* Black-box entry subcircuit for sky130_fd_sc_hd__clkbuf_2 abstract view
.subckt sky130_fd_sc_hd__clkbuf_2 A VGND VNB VPB VPWR X
.ends

* Black-box entry subcircuit for sky130_fd_sc_hd__o2111a_1 abstract view
.subckt sky130_fd_sc_hd__o2111a_1 A1 A2 B1 C1 D1 VGND VNB VPB VPWR X
.ends

* Black-box entry subcircuit for sky130_fd_sc_hd__clkbuf_4 abstract view
.subckt sky130_fd_sc_hd__clkbuf_4 A VGND VNB VPB VPWR X
.ends

* Black-box entry subcircuit for sky130_fd_sc_hd__buf_4 abstract view
.subckt sky130_fd_sc_hd__buf_4 A VGND VNB VPB VPWR X
.ends

* Black-box entry subcircuit for sky130_fd_sc_hd__decap_3 abstract view
.subckt sky130_fd_sc_hd__decap_3 VGND VNB VPB VPWR
.ends

* Black-box entry subcircuit for sky130_fd_sc_hd__a222oi_1 abstract view
.subckt sky130_fd_sc_hd__a222oi_1 A1 A2 B1 B2 C1 C2 VGND VNB VPB VPWR Y
.ends

* Black-box entry subcircuit for sky130_fd_sc_hd__o22ai_1 abstract view
.subckt sky130_fd_sc_hd__o22ai_1 A1 A2 B1 B2 VGND VNB VPB VPWR Y
.ends

* Black-box entry subcircuit for sky130_fd_sc_hd__clkbuf_1 abstract view
.subckt sky130_fd_sc_hd__clkbuf_1 A VGND VNB VPB VPWR X
.ends

* Black-box entry subcircuit for sky130_fd_sc_hd__nor2_1 abstract view
.subckt sky130_fd_sc_hd__nor2_1 A B VGND VNB VPB VPWR Y
.ends

* Black-box entry subcircuit for sky130_fd_sc_hd__nand2_4 abstract view
.subckt sky130_fd_sc_hd__nand2_4 A B VGND VNB VPB VPWR Y
.ends

* Black-box entry subcircuit for sky130_fd_sc_hd__nor4b_1 abstract view
.subckt sky130_fd_sc_hd__nor4b_1 A B C D_N VGND VNB VPB VPWR Y
.ends

* Black-box entry subcircuit for sky130_fd_sc_hd__mux2_1 abstract view
.subckt sky130_fd_sc_hd__mux2_1 A0 A1 S VGND VNB VPB VPWR X
.ends

* Black-box entry subcircuit for sky130_fd_sc_hd__nor3_2 abstract view
.subckt sky130_fd_sc_hd__nor3_2 A B C VGND VNB VPB VPWR Y
.ends

* Black-box entry subcircuit for sky130_fd_sc_hd__dfrtp_1 abstract view
.subckt sky130_fd_sc_hd__dfrtp_1 CLK D RESET_B VGND VNB VPB VPWR Q
.ends

* Black-box entry subcircuit for sky130_fd_sc_hd__o21a_1 abstract view
.subckt sky130_fd_sc_hd__o21a_1 A1 A2 B1 VGND VNB VPB VPWR X
.ends

* Black-box entry subcircuit for sky130_fd_sc_hd__dlygate4sd3_1 abstract view
.subckt sky130_fd_sc_hd__dlygate4sd3_1 A VGND VNB VPB VPWR X
.ends

* Black-box entry subcircuit for sky130_fd_sc_hd__buf_1 abstract view
.subckt sky130_fd_sc_hd__buf_1 A VGND VNB VPB VPWR X
.ends

* Black-box entry subcircuit for sky130_fd_sc_hd__diode_2 abstract view
.subckt sky130_fd_sc_hd__diode_2 DIODE VGND VNB VPB VPWR
.ends

* Black-box entry subcircuit for sky130_fd_sc_hd__a22o_1 abstract view
.subckt sky130_fd_sc_hd__a22o_1 A1 A2 B1 B2 VGND VNB VPB VPWR X
.ends

* Black-box entry subcircuit for sky130_fd_sc_hd__dfstp_2 abstract view
.subckt sky130_fd_sc_hd__dfstp_2 CLK D SET_B VGND VNB VPB VPWR Q
.ends

* Black-box entry subcircuit for sky130_fd_sc_hd__o21ai_2 abstract view
.subckt sky130_fd_sc_hd__o21ai_2 A1 A2 B1 VGND VNB VPB VPWR Y
.ends

* Black-box entry subcircuit for sky130_fd_sc_hd__lpflow_isobufsrc_1 abstract view
.subckt sky130_fd_sc_hd__lpflow_isobufsrc_1 A SLEEP VGND VNB VPB VPWR X
.ends

* Black-box entry subcircuit for sky130_fd_sc_hd__o21ai_0 abstract view
.subckt sky130_fd_sc_hd__o21ai_0 A1 A2 B1 VGND VNB VPB VPWR Y
.ends

* Black-box entry subcircuit for sky130_fd_sc_hd__a22oi_1 abstract view
.subckt sky130_fd_sc_hd__a22oi_1 A1 A2 B1 B2 VGND VNB VPB VPWR Y
.ends

* Black-box entry subcircuit for sky130_fd_sc_hd__a21oi_1 abstract view
.subckt sky130_fd_sc_hd__a21oi_1 A1 A2 B1 VGND VNB VPB VPWR Y
.ends

* Black-box entry subcircuit for sky130_fd_sc_hd__nand3_1 abstract view
.subckt sky130_fd_sc_hd__nand3_1 A B C VGND VNB VPB VPWR Y
.ends

* Black-box entry subcircuit for sky130_fd_sc_hd__and2_1 abstract view
.subckt sky130_fd_sc_hd__and2_1 A B VGND VNB VPB VPWR X
.ends

* Black-box entry subcircuit for sky130_fd_sc_hd__nand2b_1 abstract view
.subckt sky130_fd_sc_hd__nand2b_1 A_N B VGND VNB VPB VPWR Y
.ends

* Black-box entry subcircuit for sky130_fd_sc_hd__a221oi_2 abstract view
.subckt sky130_fd_sc_hd__a221oi_2 A1 A2 B1 B2 C1 VGND VNB VPB VPWR Y
.ends

* Black-box entry subcircuit for sky130_fd_sc_hd__nor3b_2 abstract view
.subckt sky130_fd_sc_hd__nor3b_2 A B C_N VGND VNB VPB VPWR Y
.ends

* Black-box entry subcircuit for sky130_fd_sc_hd__nand2_2 abstract view
.subckt sky130_fd_sc_hd__nand2_2 A B VGND VNB VPB VPWR Y
.ends

* Black-box entry subcircuit for sky130_fd_sc_hd__and3_1 abstract view
.subckt sky130_fd_sc_hd__and3_1 A B C VGND VNB VPB VPWR X
.ends

* Black-box entry subcircuit for sky130_fd_sc_hd__nand3_4 abstract view
.subckt sky130_fd_sc_hd__nand3_4 A B C VGND VNB VPB VPWR Y
.ends

* Black-box entry subcircuit for sky130_fd_sc_hd__o21a_2 abstract view
.subckt sky130_fd_sc_hd__o21a_2 A1 A2 B1 VGND VNB VPB VPWR X
.ends

* Black-box entry subcircuit for sky130_fd_sc_hd__nand3_2 abstract view
.subckt sky130_fd_sc_hd__nand3_2 A B C VGND VNB VPB VPWR Y
.ends

* Black-box entry subcircuit for sky130_fd_sc_hd__buf_2 abstract view
.subckt sky130_fd_sc_hd__buf_2 A VGND VNB VPB VPWR X
.ends

* Black-box entry subcircuit for sky130_fd_sc_hd__nor4b_2 abstract view
.subckt sky130_fd_sc_hd__nor4b_2 A B C D_N VGND VNB VPB VPWR Y
.ends

* Black-box entry subcircuit for sky130_fd_sc_hd__dfrtp_2 abstract view
.subckt sky130_fd_sc_hd__dfrtp_2 CLK D RESET_B VGND VNB VPB VPWR Q
.ends

* Black-box entry subcircuit for sky130_fd_sc_hd__and3b_1 abstract view
.subckt sky130_fd_sc_hd__and3b_1 A_N B C VGND VNB VPB VPWR X
.ends

* Black-box entry subcircuit for sky130_fd_sc_hd__o31ai_1 abstract view
.subckt sky130_fd_sc_hd__o31ai_1 A1 A2 A3 B1 VGND VNB VPB VPWR Y
.ends

* Black-box entry subcircuit for sky130_fd_sc_hd__nor2_2 abstract view
.subckt sky130_fd_sc_hd__nor2_2 A B VGND VNB VPB VPWR Y
.ends

* Black-box entry subcircuit for sky130_fd_sc_hd__nor4b_4 abstract view
.subckt sky130_fd_sc_hd__nor4b_4 A B C D_N VGND VNB VPB VPWR Y
.ends

* Black-box entry subcircuit for sky130_fd_sc_hd__mux2i_4 abstract view
.subckt sky130_fd_sc_hd__mux2i_4 A0 A1 S VGND VNB VPB VPWR Y
.ends

* Black-box entry subcircuit for sky130_fd_sc_hd__or4_1 abstract view
.subckt sky130_fd_sc_hd__or4_1 A B C D VGND VNB VPB VPWR X
.ends

* Black-box entry subcircuit for sky130_fd_sc_hd__and4_1 abstract view
.subckt sky130_fd_sc_hd__and4_1 A B C D VGND VNB VPB VPWR X
.ends

* Black-box entry subcircuit for sky130_fd_sc_hd__xor2_1 abstract view
.subckt sky130_fd_sc_hd__xor2_1 A B VGND VNB VPB VPWR X
.ends

* Black-box entry subcircuit for sky130_fd_sc_hd__nor4bb_4 abstract view
.subckt sky130_fd_sc_hd__nor4bb_4 A B C_N D_N VGND VNB VPB VPWR Y
.ends

* Black-box entry subcircuit for sky130_fd_sc_hd__a221oi_1 abstract view
.subckt sky130_fd_sc_hd__a221oi_1 A1 A2 B1 B2 C1 VGND VNB VPB VPWR Y
.ends

* Black-box entry subcircuit for sky130_fd_sc_hd__clkbuf_16 abstract view
.subckt sky130_fd_sc_hd__clkbuf_16 A VGND VNB VPB VPWR X
.ends

* Black-box entry subcircuit for sky130_fd_sc_hd__a21o_1 abstract view
.subckt sky130_fd_sc_hd__a21o_1 A1 A2 B1 VGND VNB VPB VPWR X
.ends

* Black-box entry subcircuit for sky130_fd_sc_hd__nor4bb_1 abstract view
.subckt sky130_fd_sc_hd__nor4bb_1 A B C_N D_N VGND VNB VPB VPWR Y
.ends

* Black-box entry subcircuit for sky130_fd_sc_hd__a21boi_0 abstract view
.subckt sky130_fd_sc_hd__a21boi_0 A1 A2 B1_N VGND VNB VPB VPWR Y
.ends

* Black-box entry subcircuit for sky130_fd_sc_hd__nor4_1 abstract view
.subckt sky130_fd_sc_hd__nor4_1 A B C D VGND VNB VPB VPWR Y
.ends

* Black-box entry subcircuit for sky130_fd_sc_hd__o2bb2ai_1 abstract view
.subckt sky130_fd_sc_hd__o2bb2ai_1 A1_N A2_N B1 B2 VGND VNB VPB VPWR Y
.ends

* Black-box entry subcircuit for sky130_fd_sc_hd__nand3b_1 abstract view
.subckt sky130_fd_sc_hd__nand3b_1 A_N B C VGND VNB VPB VPWR Y
.ends

* Black-box entry subcircuit for sky130_fd_sc_hd__o41a_1 abstract view
.subckt sky130_fd_sc_hd__o41a_1 A1 A2 A3 A4 B1 VGND VNB VPB VPWR X
.ends

* Black-box entry subcircuit for sky130_fd_sc_hd__nor2b_1 abstract view
.subckt sky130_fd_sc_hd__nor2b_1 A B_N VGND VNB VPB VPWR Y
.ends

* Black-box entry subcircuit for sky130_fd_sc_hd__xor2_2 abstract view
.subckt sky130_fd_sc_hd__xor2_2 A B VGND VNB VPB VPWR X
.ends

* Black-box entry subcircuit for sky130_fd_sc_hd__o31a_1 abstract view
.subckt sky130_fd_sc_hd__o31a_1 A1 A2 A3 B1 VGND VNB VPB VPWR X
.ends

* Black-box entry subcircuit for sky130_fd_sc_hd__a21boi_2 abstract view
.subckt sky130_fd_sc_hd__a21boi_2 A1 A2 B1_N VGND VNB VPB VPWR Y
.ends

* Black-box entry subcircuit for sky130_fd_sc_hd__and2_0 abstract view
.subckt sky130_fd_sc_hd__and2_0 A B VGND VNB VPB VPWR X
.ends

* Black-box entry subcircuit for sky130_fd_sc_hd__xnor3_1 abstract view
.subckt sky130_fd_sc_hd__xnor3_1 A B C VGND VNB VPB VPWR X
.ends

* Black-box entry subcircuit for sky130_fd_sc_hd__o211ai_2 abstract view
.subckt sky130_fd_sc_hd__o211ai_2 A1 A2 B1 C1 VGND VNB VPB VPWR Y
.ends

* Black-box entry subcircuit for sky130_fd_sc_hd__o21ai_1 abstract view
.subckt sky130_fd_sc_hd__o21ai_1 A1 A2 B1 VGND VNB VPB VPWR Y
.ends

* Black-box entry subcircuit for sky130_fd_sc_hd__a311oi_2 abstract view
.subckt sky130_fd_sc_hd__a311oi_2 A1 A2 A3 B1 C1 VGND VNB VPB VPWR Y
.ends

* Black-box entry subcircuit for sky130_fd_sc_hd__or3b_1 abstract view
.subckt sky130_fd_sc_hd__or3b_1 A B C_N VGND VNB VPB VPWR X
.ends

* Black-box entry subcircuit for sky130_fd_sc_hd__o41ai_1 abstract view
.subckt sky130_fd_sc_hd__o41ai_1 A1 A2 A3 A4 B1 VGND VNB VPB VPWR Y
.ends

* Black-box entry subcircuit for sky130_fd_sc_hd__or4_4 abstract view
.subckt sky130_fd_sc_hd__or4_4 A B C D VGND VNB VPB VPWR X
.ends

* Black-box entry subcircuit for sky130_fd_sc_hd__o21bai_1 abstract view
.subckt sky130_fd_sc_hd__o21bai_1 A1 A2 B1_N VGND VNB VPB VPWR Y
.ends

* Black-box entry subcircuit for sky130_fd_sc_hd__a22oi_2 abstract view
.subckt sky130_fd_sc_hd__a22oi_2 A1 A2 B1 B2 VGND VNB VPB VPWR Y
.ends

* Black-box entry subcircuit for sky130_fd_sc_hd__a31oi_1 abstract view
.subckt sky130_fd_sc_hd__a31oi_1 A1 A2 A3 B1 VGND VNB VPB VPWR Y
.ends

* Black-box entry subcircuit for sky130_fd_sc_hd__nor2_4 abstract view
.subckt sky130_fd_sc_hd__nor2_4 A B VGND VNB VPB VPWR Y
.ends

* Black-box entry subcircuit for sky130_fd_sc_hd__nor3b_1 abstract view
.subckt sky130_fd_sc_hd__nor3b_1 A B C_N VGND VNB VPB VPWR Y
.ends

* Black-box entry subcircuit for sky130_fd_sc_hd__a211oi_1 abstract view
.subckt sky130_fd_sc_hd__a211oi_1 A1 A2 B1 C1 VGND VNB VPB VPWR Y
.ends

* Black-box entry subcircuit for sky130_fd_sc_hd__or3_1 abstract view
.subckt sky130_fd_sc_hd__or3_1 A B C VGND VNB VPB VPWR X
.ends

* Black-box entry subcircuit for sky130_fd_sc_hd__clkbuf_8 abstract view
.subckt sky130_fd_sc_hd__clkbuf_8 A VGND VNB VPB VPWR X
.ends

* Black-box entry subcircuit for sky130_fd_sc_hd__a32oi_1 abstract view
.subckt sky130_fd_sc_hd__a32oi_1 A1 A2 A3 B1 B2 VGND VNB VPB VPWR Y
.ends

* Black-box entry subcircuit for sky130_fd_sc_hd__a21oi_2 abstract view
.subckt sky130_fd_sc_hd__a21oi_2 A1 A2 B1 VGND VNB VPB VPWR Y
.ends

* Black-box entry subcircuit for sky130_fd_sc_hd__and4b_1 abstract view
.subckt sky130_fd_sc_hd__and4b_1 A_N B C D VGND VNB VPB VPWR X
.ends

* Black-box entry subcircuit for sky130_fd_sc_hd__inv_1 abstract view
.subckt sky130_fd_sc_hd__inv_1 A VGND VNB VPB VPWR Y
.ends

* Black-box entry subcircuit for sky130_fd_sc_hd__o2111ai_2 abstract view
.subckt sky130_fd_sc_hd__o2111ai_2 A1 A2 B1 C1 D1 VGND VNB VPB VPWR Y
.ends

* Black-box entry subcircuit for sky130_fd_sc_hd__o22a_1 abstract view
.subckt sky130_fd_sc_hd__o22a_1 A1 A2 B1 B2 VGND VNB VPB VPWR X
.ends

* Black-box entry subcircuit for sky130_fd_sc_hd__nand4b_4 abstract view
.subckt sky130_fd_sc_hd__nand4b_4 A_N B C D VGND VNB VPB VPWR Y
.ends

* Black-box entry subcircuit for sky130_fd_sc_hd__nor4_2 abstract view
.subckt sky130_fd_sc_hd__nor4_2 A B C D VGND VNB VPB VPWR Y
.ends

* Black-box entry subcircuit for sky130_fd_sc_hd__nor4bb_2 abstract view
.subckt sky130_fd_sc_hd__nor4bb_2 A B C_N D_N VGND VNB VPB VPWR Y
.ends

* Black-box entry subcircuit for sky130_fd_sc_hd__a211o_1 abstract view
.subckt sky130_fd_sc_hd__a211o_1 A1 A2 B1 C1 VGND VNB VPB VPWR X
.ends

* Black-box entry subcircuit for sky130_fd_sc_hd__a41oi_2 abstract view
.subckt sky130_fd_sc_hd__a41oi_2 A1 A2 A3 A4 B1 VGND VNB VPB VPWR Y
.ends

* Black-box entry subcircuit for sky130_fd_sc_hd__and3b_2 abstract view
.subckt sky130_fd_sc_hd__and3b_2 A_N B C VGND VNB VPB VPWR X
.ends

* Black-box entry subcircuit for sky130_fd_sc_hd__nand4_4 abstract view
.subckt sky130_fd_sc_hd__nand4_4 A B C D VGND VNB VPB VPWR Y
.ends

* Black-box entry subcircuit for sky130_fd_sc_hd__and2_2 abstract view
.subckt sky130_fd_sc_hd__and2_2 A B VGND VNB VPB VPWR X
.ends

* Black-box entry subcircuit for sky130_fd_sc_hd__a32o_1 abstract view
.subckt sky130_fd_sc_hd__a32o_1 A1 A2 A3 B1 B2 VGND VNB VPB VPWR X
.ends

* Black-box entry subcircuit for sky130_fd_sc_hd__and4_4 abstract view
.subckt sky130_fd_sc_hd__and4_4 A B C D VGND VNB VPB VPWR X
.ends

* Black-box entry subcircuit for sky130_fd_sc_hd__a41oi_1 abstract view
.subckt sky130_fd_sc_hd__a41oi_1 A1 A2 A3 A4 B1 VGND VNB VPB VPWR Y
.ends

* Black-box entry subcircuit for sky130_fd_sc_hd__a21boi_1 abstract view
.subckt sky130_fd_sc_hd__a21boi_1 A1 A2 B1_N VGND VNB VPB VPWR Y
.ends

* Black-box entry subcircuit for sky130_fd_sc_hd__nor3_4 abstract view
.subckt sky130_fd_sc_hd__nor3_4 A B C VGND VNB VPB VPWR Y
.ends

* Black-box entry subcircuit for sky130_fd_sc_hd__o2111ai_1 abstract view
.subckt sky130_fd_sc_hd__o2111ai_1 A1 A2 B1 C1 D1 VGND VNB VPB VPWR Y
.ends

* Black-box entry subcircuit for sky130_fd_sc_hd__o311ai_2 abstract view
.subckt sky130_fd_sc_hd__o311ai_2 A1 A2 A3 B1 C1 VGND VNB VPB VPWR Y
.ends

* Black-box entry subcircuit for sky130_fd_sc_hd__or3_4 abstract view
.subckt sky130_fd_sc_hd__or3_4 A B C VGND VNB VPB VPWR X
.ends

* Black-box entry subcircuit for sky130_fd_sc_hd__lpflow_inputiso1p_1 abstract view
.subckt sky130_fd_sc_hd__lpflow_inputiso1p_1 A SLEEP VGND VNB VPB VPWR X
.ends

* Black-box entry subcircuit for sky130_fd_sc_hd__a2111oi_1 abstract view
.subckt sky130_fd_sc_hd__a2111oi_1 A1 A2 B1 C1 D1 VGND VNB VPB VPWR Y
.ends

* Black-box entry subcircuit for sky130_fd_sc_hd__o211ai_1 abstract view
.subckt sky130_fd_sc_hd__o211ai_1 A1 A2 B1 C1 VGND VNB VPB VPWR Y
.ends

* Black-box entry subcircuit for sky130_fd_sc_hd__and3_2 abstract view
.subckt sky130_fd_sc_hd__and3_2 A B C VGND VNB VPB VPWR X
.ends

* Black-box entry subcircuit for sky130_fd_sc_hd__a31o_1 abstract view
.subckt sky130_fd_sc_hd__a31o_1 A1 A2 A3 B1 VGND VNB VPB VPWR X
.ends

* Black-box entry subcircuit for sky130_fd_sc_hd__nand2b_2 abstract view
.subckt sky130_fd_sc_hd__nand2b_2 A_N B VGND VNB VPB VPWR Y
.ends

* Black-box entry subcircuit for sky130_fd_sc_hd__nand4_2 abstract view
.subckt sky130_fd_sc_hd__nand4_2 A B C D VGND VNB VPB VPWR Y
.ends

* Black-box entry subcircuit for sky130_fd_sc_hd__a21oi_4 abstract view
.subckt sky130_fd_sc_hd__a21oi_4 A1 A2 B1 VGND VNB VPB VPWR Y
.ends

* Black-box entry subcircuit for sky130_fd_sc_hd__a311oi_1 abstract view
.subckt sky130_fd_sc_hd__a311oi_1 A1 A2 A3 B1 C1 VGND VNB VPB VPWR Y
.ends

* Black-box entry subcircuit for sky130_fd_sc_hd__dlymetal6s2s_1 abstract view
.subckt sky130_fd_sc_hd__dlymetal6s2s_1 A VGND VNB VPB VPWR X
.ends

* Black-box entry subcircuit for sky130_fd_sc_hd__inv_2 abstract view
.subckt sky130_fd_sc_hd__inv_2 A VGND VNB VPB VPWR Y
.ends

* Black-box entry subcircuit for sky130_fd_sc_hd__or3_2 abstract view
.subckt sky130_fd_sc_hd__or3_2 A B C VGND VNB VPB VPWR X
.ends

* Black-box entry subcircuit for sky130_fd_sc_hd__o31ai_2 abstract view
.subckt sky130_fd_sc_hd__o31ai_2 A1 A2 A3 B1 VGND VNB VPB VPWR Y
.ends

* Black-box entry subcircuit for sky130_fd_sc_hd__a221oi_4 abstract view
.subckt sky130_fd_sc_hd__a221oi_4 A1 A2 B1 B2 C1 VGND VNB VPB VPWR Y
.ends

.subckt uart_top VGND VPWR addr[0] addr[1] addr[2] break_int clk cts_in dcd_in dr
+ dsr_in dtr framing_err irq out1 out2 parity_err rd_en rdata[0] rdata[1] rdata[2]
+ rdata[3] rdata[4] rdata[5] rdata[6] rdata[7] ri_in rst_n rts rx_in temt thre tx_out
+ wdata[0] wdata[1] wdata[2] wdata[3] wdata[4] wdata[5] wdata[6] wdata[7] wr_en
XFILLER_0_27_71 VGND VGND VPWR VPWR sky130_fd_sc_hd__fill_2
XTAP_199 VGND VPWR sky130_fd_sc_hd__tapvpwrvgnd_1
XTAP_188 VGND VPWR sky130_fd_sc_hd__tapvpwrvgnd_1
XTAP_177 VGND VPWR sky130_fd_sc_hd__tapvpwrvgnd_1
X_2037_ _0951_ _0954_ VGND VGND VPWR VPWR _0955_ sky130_fd_sc_hd__nand2_1
X_2106_ net226 net224 net230 net228 VGND VGND VPWR VPWR _1005_ sky130_fd_sc_hd__and4b_4
XFILLER_0_76_177 VPWR VGND VPWR VGND sky130_ef_sc_hd__decap_12
XFILLER_0_64_306 VGND VGND VPWR VPWR sky130_fd_sc_hd__fill_2
XFILLER_0_57_391 VGND VGND VPWR VPWR sky130_fd_sc_hd__fill_1
X_2939_ clknet_leaf_34_clk net337 net256 VGND VGND VPWR VPWR rx.bit_cnt\[0\] sky130_fd_sc_hd__dfrtp_4
XFILLER_0_7_81 VGND VGND VPWR VPWR sky130_fd_sc_hd__decap_4
XFILLER_0_70_309 VPWR VGND VPWR VGND sky130_ef_sc_hd__decap_12
XFILLER_0_23_225 VGND VGND VPWR VPWR sky130_fd_sc_hd__decap_6
XFILLER_0_48_26 VGND VGND VPWR VPWR sky130_fd_sc_hd__fill_2
X_1270_ tx_fifo.count\[4\] tx.tx_busy _0513_ VGND VGND VPWR VPWR net33 sky130_fd_sc_hd__nor3_1
XFILLER_0_73_169 VGND VGND VPWR VPWR sky130_fd_sc_hd__decap_8
X_2655_ clknet_leaf_20_clk _0211_ net97 VGND VGND VPWR VPWR rx_fifo.fifo\[13\]\[7\]
+ sky130_fd_sc_hd__edfxtp_1
X_1606_ rx_fifo.fifo\[4\]\[1\] net173 net172 rx_fifo.fifo\[7\]\[1\] _0809_ VGND VGND
+ VPWR VPWR _0810_ sky130_fd_sc_hd__a221o_1
X_2724_ clknet_leaf_5_clk _0494_ net49 VGND VGND VPWR VPWR tx_fifo.fifo\[0\]\[1\]
+ sky130_fd_sc_hd__edfxtp_1
X_1537_ _0739_ _0740_ _0743_ _0744_ VGND VGND VPWR VPWR _0745_ sky130_fd_sc_hd__nand4_1
X_1399_ tx.baud_cnt\[14\] _0637_ VGND VGND VPWR VPWR _0638_ sky130_fd_sc_hd__xnor2_1
X_2586_ clknet_leaf_14_clk _0219_ net82 VGND VGND VPWR VPWR rx_fifo.fifo\[12\]\[4\]
+ sky130_fd_sc_hd__edfxtp_1
Xfanout116 _0845_ VGND VGND VPWR VPWR net116 sky130_fd_sc_hd__clkbuf_2
X_1468_ _0683_ _0684_ _0687_ _0688_ _0681_ VGND VGND VPWR VPWR _0689_ sky130_fd_sc_hd__o2111a_1
Xfanout105 net106 VGND VGND VPWR VPWR net105 sky130_fd_sc_hd__clkbuf_4
Xfanout149 _0868_ VGND VGND VPWR VPWR net149 sky130_fd_sc_hd__buf_4
XFILLER_0_1_163 VGND VGND VPWR VPWR sky130_fd_sc_hd__decap_4
XFILLER_0_37_306 VGND VGND VPWR VPWR sky130_fd_sc_hd__fill_2
XFILLER_0_64_103 VPWR VGND VPWR VGND sky130_ef_sc_hd__decap_12
XFILLER_0_52_309 VGND VGND VPWR VPWR sky130_fd_sc_hd__fill_1
XFILLER_0_37_317 VGND VGND VPWR VPWR sky130_fd_sc_hd__decap_3
XFILLER_0_18_29 VGND VGND VPWR VPWR sky130_fd_sc_hd__decap_8
XFILLER_0_3_417 VPWR VGND VPWR VGND sky130_ef_sc_hd__decap_12
X_2440_ _1112_ _1203_ VGND VGND VPWR VPWR _1204_ sky130_fd_sc_hd__nand2_1
XFILLER_0_75_79 VGND VGND VPWR VPWR sky130_fd_sc_hd__decap_8
XFILLER_0_75_57 VPWR VGND VPWR VGND sky130_ef_sc_hd__decap_12
X_1322_ rx_fifo.fifo\[3\]\[8\] net176 net170 rx_fifo.fifo\[14\]\[8\] net163 rx_fifo.fifo\[5\]\[8\]
+ VGND VGND VPWR VPWR _0562_ sky130_fd_sc_hd__a222oi_1
X_2371_ tx_fifo.count\[4\] _0513_ _1027_ _1038_ VGND VGND VPWR VPWR _1169_ sky130_fd_sc_hd__o22ai_1
XFILLER_0_74_445 VPWR VGND VPWR VGND sky130_ef_sc_hd__decap_12
XFILLER_0_34_309 VPWR VGND VPWR VGND sky130_ef_sc_hd__decap_12
XFILLER_0_27_361 VGND VGND VPWR VPWR sky130_fd_sc_hd__fill_2
XFILLER_0_24_61 VGND VGND VPWR VPWR sky130_fd_sc_hd__fill_1
XFILLER_0_6_244 VGND VGND VPWR VPWR sky130_fd_sc_hd__decap_8
X_2638_ clknet_leaf_21_clk _0282_ net98 VGND VGND VPWR VPWR rx_fifo.fifo\[6\]\[1\]
+ sky130_fd_sc_hd__edfxtp_1
XFILLER_0_71_3 VPWR VGND VPWR VGND sky130_ef_sc_hd__decap_12
X_2569_ clknet_leaf_17_clk _0345_ net85 VGND VGND VPWR VPWR rx_fifo.fifo\[1\]\[9\]
+ sky130_fd_sc_hd__edfxtp_1
X_2707_ clknet_leaf_3_clk _0381_ _0015_ VGND VGND VPWR VPWR tx_fifo.fifo\[14\]\[0\]
+ sky130_fd_sc_hd__edfxtp_1
XFILLER_0_65_90 VGND VGND VPWR VPWR sky130_fd_sc_hd__fill_1
XFILLER_0_37_169 VGND VGND VPWR VPWR sky130_fd_sc_hd__fill_1
XFILLER_0_20_19 VGND VGND VPWR VPWR sky130_fd_sc_hd__decap_8
XFILLER_0_45_27 VPWR VGND VPWR VGND sky130_ef_sc_hd__decap_12
XFILLER_0_0_29 VGND VGND VPWR VPWR sky130_fd_sc_hd__decap_8
Xmax_cap5 _1000_ VGND VGND VPWR VPWR net384 sky130_fd_sc_hd__clkbuf_1
XFILLER_0_71_415 VGND VGND VPWR VPWR sky130_fd_sc_hd__decap_4
XFILLER_0_68_294 VPWR VGND VPWR VGND sky130_ef_sc_hd__decap_12
X_1871_ net62 _0891_ VGND VGND VPWR VPWR _0390_ sky130_fd_sc_hd__nor2_1
X_1940_ _0892_ net202 VGND VGND VPWR VPWR _0903_ sky130_fd_sc_hd__nand2_4
XFILLER_0_51_150 VGND VGND VPWR VPWR sky130_fd_sc_hd__fill_1
X_2423_ regs.rx_fifo_pop net124 _1097_ rx_fifo.count\[3\] VGND VGND VPWR VPWR _1197_
+ sky130_fd_sc_hd__nor4b_1
XFILLER_0_10_41 VPWR VGND VPWR VGND sky130_ef_sc_hd__decap_12
XFILLER_0_10_85 VGND VGND VPWR VPWR sky130_fd_sc_hd__decap_8
X_1305_ _0543_ _0546_ VGND VGND VPWR VPWR _0547_ sky130_fd_sc_hd__nor2_1
X_2285_ net266 net12 _0160_ VGND VGND VPWR VPWR _0109_ sky130_fd_sc_hd__mux2_1
X_2354_ net218 _0908_ net58 VGND VGND VPWR VPWR _0013_ sky130_fd_sc_hd__nor3_2
XFILLER_0_74_264 VGND VGND VPWR VPWR sky130_fd_sc_hd__fill_2
XFILLER_0_42_161 VPWR VGND VPWR VGND sky130_ef_sc_hd__decap_12
XFILLER_0_27_180 VGND VGND VPWR VPWR sky130_fd_sc_hd__decap_6
XFILLER_0_19_169 VGND VGND VPWR VPWR sky130_fd_sc_hd__decap_3
XFILLER_0_30_356 VGND VGND VPWR VPWR sky130_fd_sc_hd__decap_3
XFILLER_0_65_275 VGND VGND VPWR VPWR sky130_fd_sc_hd__decap_4
Xwire133 _0723_ VGND VGND VPWR VPWR net133 sky130_fd_sc_hd__clkbuf_1
XTAP_507 VGND VPWR sky130_fd_sc_hd__tapvpwrvgnd_1
Xwire144 _1025_ VGND VGND VPWR VPWR net144 sky130_fd_sc_hd__clkbuf_1
XTAP_529 VGND VPWR sky130_fd_sc_hd__tapvpwrvgnd_1
XTAP_518 VGND VPWR sky130_fd_sc_hd__tapvpwrvgnd_1
X_2070_ _0968_ _0969_ VGND VGND VPWR VPWR _0979_ sky130_fd_sc_hd__nand2_1
X_2972_ clknet_leaf_8_clk _0174_ net244 VGND VGND VPWR VPWR rx.baud_cnt\[7\] sky130_fd_sc_hd__dfrtp_1
XFILLER_0_8_317 VGND VGND VPWR VPWR sky130_fd_sc_hd__fill_1
X_1785_ net107 net149 VGND VGND VPWR VPWR _0306_ sky130_fd_sc_hd__nor2_1
XFILLER_0_71_223 VGND VGND VPWR VPWR sky130_fd_sc_hd__fill_1
XFILLER_0_71_212 VGND VGND VPWR VPWR sky130_fd_sc_hd__decap_4
XFILLER_0_56_253 VPWR VGND VPWR VGND sky130_ef_sc_hd__decap_12
X_1923_ net61 _0900_ VGND VGND VPWR VPWR _0437_ sky130_fd_sc_hd__nor2_1
X_1854_ _0879_ net60 VGND VGND VPWR VPWR _0373_ sky130_fd_sc_hd__nor2_1
X_2406_ net156 net90 VGND VGND VPWR VPWR _0226_ sky130_fd_sc_hd__nor2_1
X_2268_ net13 net330 _1132_ VGND VGND VPWR VPWR _0094_ sky130_fd_sc_hd__mux2_1
X_2337_ net221 net146 _1164_ VGND VGND VPWR VPWR _0028_ sky130_fd_sc_hd__nor3_2
X_2199_ net234 _1086_ _1087_ VGND VGND VPWR VPWR _0070_ sky130_fd_sc_hd__o21a_1
XFILLER_0_34_3 VPWR VGND VPWR VGND sky130_ef_sc_hd__decap_12
XFILLER_0_35_426 VPWR VGND VPWR VGND sky130_ef_sc_hd__decap_12
XFILLER_0_30_153 VGND VGND VPWR VPWR sky130_fd_sc_hd__decap_3
XFILLER_0_15_150 VPWR VGND VPWR VGND sky130_ef_sc_hd__decap_12
Xhold74 regs.ier\[2\] VGND VGND VPWR VPWR net335 sky130_fd_sc_hd__dlygate4sd3_1
XFILLER_0_30_197 VPWR VGND VPWR VGND sky130_ef_sc_hd__decap_12
XFILLER_0_26_29 VGND VGND VPWR VPWR sky130_fd_sc_hd__decap_4
Xhold30 _0055_ VGND VGND VPWR VPWR net291 sky130_fd_sc_hd__dlygate4sd3_1
Xhold52 tx_fifo.fifo\[3\]\[3\] VGND VGND VPWR VPWR net313 sky130_fd_sc_hd__dlygate4sd3_1
Xhold63 rx.break_int_lat VGND VGND VPWR VPWR net324 sky130_fd_sc_hd__buf_1
Xhold41 _0065_ VGND VGND VPWR VPWR net302 sky130_fd_sc_hd__dlygate4sd3_1
Xhold85 divisor\[2\] VGND VGND VPWR VPWR net346 sky130_fd_sc_hd__dlygate4sd3_1
Xhold96 divisor\[0\] VGND VGND VPWR VPWR net357 sky130_fd_sc_hd__dlygate4sd3_1
XFILLER_0_38_253 VPWR VGND VPWR VGND sky130_ef_sc_hd__decap_12
XFILLER_0_26_404 VPWR VGND VPWR VGND sky130_ef_sc_hd__decap_12
XFILLER_0_67_69 VPWR VGND VPWR VGND sky130_ef_sc_hd__decap_12
XFILLER_0_67_25 VGND VGND VPWR VPWR sky130_fd_sc_hd__fill_1
X_1570_ rx_fifo.fifo\[0\]\[3\] net215 net172 rx_fifo.fifo\[7\]\[3\] _0775_ VGND VGND
+ VPWR VPWR _0776_ sky130_fd_sc_hd__a221o_1
XTAP_348 VGND VPWR sky130_fd_sc_hd__tapvpwrvgnd_1
XTAP_337 VGND VPWR sky130_fd_sc_hd__tapvpwrvgnd_1
XFILLER_0_21_186 VGND VGND VPWR VPWR sky130_fd_sc_hd__decap_3
XANTENNA_5 net27 VGND VGND VPWR VPWR sky130_fd_sc_hd__diode_2
XTAP_304 VGND VPWR sky130_fd_sc_hd__tapvpwrvgnd_1
XTAP_315 VGND VPWR sky130_fd_sc_hd__tapvpwrvgnd_1
XTAP_326 VGND VPWR sky130_fd_sc_hd__tapvpwrvgnd_1
XTAP_359 VGND VPWR sky130_fd_sc_hd__tapvpwrvgnd_1
X_2122_ tx_fifo.fifo\[10\]\[5\] net195 _1001_ tx_fifo.fifo\[9\]\[5\] VGND VGND VPWR
+ VPWR _1020_ sky130_fd_sc_hd__a22o_1
X_2053_ net345 net351 _0967_ VGND VGND VPWR VPWR _0045_ sky130_fd_sc_hd__mux2_1
XFILLER_0_76_348 VPWR VGND VPWR VGND sky130_ef_sc_hd__decap_12
X_2955_ clknet_leaf_37_clk net322 net256 VGND VGND VPWR VPWR net35 sky130_fd_sc_hd__dfstp_2
XFILLER_0_8_147 VGND VGND VPWR VPWR sky130_fd_sc_hd__fill_1
X_1768_ net119 _0867_ VGND VGND VPWR VPWR _0301_ sky130_fd_sc_hd__nor2_1
X_2886_ clknet_leaf_12_clk net326 net245 VGND VGND VPWR VPWR divisor\[10\] sky130_fd_sc_hd__dfrtp_1
X_1906_ net60 _0897_ VGND VGND VPWR VPWR _0421_ sky130_fd_sc_hd__nor2_1
X_1837_ _0874_ _0875_ regs.tx_start VGND VGND VPWR VPWR _0877_ sky130_fd_sc_hd__o21ai_2
X_1699_ rx_fifo.tail\[3\] rx_fifo.tail\[2\] VGND VGND VPWR VPWR _0859_ sky130_fd_sc_hd__lpflow_isobufsrc_1
XFILLER_0_12_197 VGND VGND VPWR VPWR sky130_fd_sc_hd__fill_1
XFILLER_0_67_337 VGND VGND VPWR VPWR sky130_fd_sc_hd__fill_1
XFILLER_0_35_245 VGND VGND VPWR VPWR sky130_fd_sc_hd__decap_8
Xoutput20 net20 VGND VGND VPWR VPWR irq sky130_fd_sc_hd__clkbuf_4
XFILLER_0_31_440 VGND VGND VPWR VPWR sky130_fd_sc_hd__fill_2
Xoutput31 net31 VGND VGND VPWR VPWR rdata[7] sky130_fd_sc_hd__clkbuf_4
XFILLER_0_58_315 VPWR VGND VPWR VGND sky130_ef_sc_hd__decap_12
XFILLER_0_26_201 VGND VGND VPWR VPWR sky130_fd_sc_hd__fill_1
X_1622_ net236 _0509_ _0823_ VGND VGND VPWR VPWR _0824_ sky130_fd_sc_hd__o21ai_0
X_2671_ clknet_leaf_29_clk _0260_ net95 VGND VGND VPWR VPWR rx_fifo.fifo\[8\]\[1\]
+ sky130_fd_sc_hd__edfxtp_1
X_2740_ clknet_leaf_43_clk _0478_ net47 VGND VGND VPWR VPWR tx_fifo.fifo\[2\]\[1\]
+ sky130_fd_sc_hd__edfxtp_1
XFILLER_0_14_429 VGND VGND VPWR VPWR sky130_fd_sc_hd__decap_8
X_1553_ rx_fifo.fifo\[12\]\[4\] net165 _0535_ rx_fifo.fifo\[15\]\[4\] VGND VGND VPWR
+ VPWR _0760_ sky130_fd_sc_hd__a22oi_1
X_1484_ _0657_ net74 _0703_ VGND VGND VPWR VPWR _0162_ sky130_fd_sc_hd__nor3_1
XTAP_189 VGND VPWR sky130_fd_sc_hd__tapvpwrvgnd_1
XTAP_178 VGND VPWR sky130_fd_sc_hd__tapvpwrvgnd_1
XTAP_167 VGND VPWR sky130_fd_sc_hd__tapvpwrvgnd_1
XTAP_156 VGND VPWR sky130_fd_sc_hd__tapvpwrvgnd_1
X_2105_ net230 net224 net226 net228 VGND VGND VPWR VPWR _1004_ sky130_fd_sc_hd__and4b_4
XFILLER_0_9_401 VGND VGND VPWR VPWR sky130_fd_sc_hd__decap_8
X_2036_ _0937_ _0948_ _0953_ VGND VGND VPWR VPWR _0954_ sky130_fd_sc_hd__a21oi_1
XFILLER_0_76_189 VGND VGND VPWR VPWR sky130_fd_sc_hd__decap_6
XFILLER_0_72_362 VGND VGND VPWR VPWR sky130_fd_sc_hd__fill_2
XFILLER_0_64_318 VGND VGND VPWR VPWR sky130_fd_sc_hd__decap_8
X_2938_ clknet_leaf_33_clk _0148_ net257 VGND VGND VPWR VPWR rx.shift_reg\[7\] sky130_fd_sc_hd__dfrtp_1
XFILLER_0_17_223 VGND VGND VPWR VPWR sky130_fd_sc_hd__fill_1
XFILLER_0_17_278 VGND VGND VPWR VPWR sky130_fd_sc_hd__fill_2
X_2869_ clknet_leaf_15_clk _0099_ net250 VGND VGND VPWR VPWR regs.dlh\[1\] sky130_fd_sc_hd__dfrtp_1
XFILLER_0_4_150 VGND VGND VPWR VPWR sky130_fd_sc_hd__fill_1
XTAP_690 VGND VPWR sky130_fd_sc_hd__tapvpwrvgnd_1
XFILLER_0_67_167 VGND VGND VPWR VPWR sky130_fd_sc_hd__fill_1
XFILLER_0_67_134 VGND VGND VPWR VPWR sky130_fd_sc_hd__fill_1
XFILLER_0_67_101 VGND VGND VPWR VPWR sky130_fd_sc_hd__decap_4
XFILLER_0_63_340 VGND VGND VPWR VPWR sky130_fd_sc_hd__fill_2
XFILLER_0_23_215 VGND VGND VPWR VPWR sky130_fd_sc_hd__decap_8
XFILLER_0_73_104 VGND VGND VPWR VPWR sky130_fd_sc_hd__decap_8
X_2723_ clknet_leaf_3_clk _0493_ net49 VGND VGND VPWR VPWR tx_fifo.fifo\[0\]\[0\]
+ sky130_fd_sc_hd__edfxtp_1
XFILLER_0_13_96 VGND VGND VPWR VPWR sky130_fd_sc_hd__fill_1
X_2654_ clknet_leaf_19_clk _0210_ net97 VGND VGND VPWR VPWR rx_fifo.fifo\[13\]\[6\]
+ sky130_fd_sc_hd__edfxtp_1